  Page 1                                    Wed Jun 22 23:53:06 2022

  ******************************************************************
  *                           E P A N E T                          *
  *                   Hydraulic and Water Quality                  *
  *                   Analysis for Pipe Networks                   *
  *                         Version 2.2                            *
  ******************************************************************
  
  PROBLEM_5_WNTR
   
      Input Data File ................... temp.inp
      Number of Junctions................ 7
      Number of Reservoirs............... 1
      Number of Tanks ................... 0
      Number of Pipes ................... 13
      Number of Pumps ................... 0
      Number of Valves .................. 0
      Headloss Formula .................. Darcy-Weisbach
      Nodal Demand Model ................ DDA
      Hydraulic Timestep ................ 1.00 hrs
      Hydraulic Accuracy ................ 0.000010
      Status Check Frequency ............ 2
      Maximum Trials Checked ............ 10
      Damping Limit Threshold ........... 0.000000
      Maximum Trials .................... 40
      Quality Analysis .................. None
      Specific Gravity .................. 1.00
      Relative Kinematic Viscosity ...... 0.00
      Relative Chemical Diffusivity ..... 1.00
      Demand Multiplier ................. 1.00
      Total Duration .................... 0.00 hrs
      Reporting Criteria:
         All Nodes
         All Links
   
  Analysis begun Wed Jun 22 23:53:06 2022

   
  Node Results:
  ----------------------------------------------
                     Demand      Head  Pressure
  Node                 m3/h         m         m
  ----------------------------------------------
  J2                 360.00     12.52     12.47
  J3                1008.00      8.92      8.88
  J4                 576.00      6.43      6.40
  J5               -1800.00      6.57      6.54
  J6                 900.00      5.84      5.81
  J7                1152.00      5.52      5.49
  J8                1044.00      3.90      3.88
  R1               -3240.00     20.42      0.00  Reservoir
   
   
  Link Results:
  ----------------------------------------------
                       Flow  Velocity  Headloss
  Link                 m3/h       m/s    /1000m
  ----------------------------------------------
  P1                1500.01      2.53     10.73
  P2                 629.72      1.61      6.40
  P3                1739.99      2.52     13.69
  P4                 510.30      2.11     10.83
  P5                 351.50      1.18      4.20
  P6                  60.99      0.37      0.37
  P7                 346.78      0.81      1.08
  P8                1010.20      1.60      4.75
  P9                 254.13      0.72      1.50
  P10               1484.88      1.39      3.16
  P11               -217.55      0.52      0.64
  P12                493.57      1.64      5.86
  P13                550.43      1.85      9.21
   
  Analysis ended Wed Jun 22 23:53:06 2022
